/*--------------------------------*- C++ -*----------------------------------*\
| =========                 |                                                 |
| \\      /  F ield         | OpenFOAM: The Open Source CFD Toolbox           |
|  \\    /   O peration     | Version:  2.1.x                                 |
|   \\  /    A nd           | Web:      www.OpenFOAM.org                      |
|    \\/     M anipulation  |                                                 |
\*---------------------------------------------------------------------------*/
FoamFile
{
    version     2.0;
    format      ascii;
    class       dictionary;
    location    "system";
    object      controlDict;
}
// * * * * * * * * * * * * * * * * * * * * * * * * * * * * * * * * * * * * * //

application     multiphaseEulerFoam;

startFrom       latestTime;

startTime       0;

stopAt          endTime;//writeNow;//endTime;

endTime         1;

deltaT          1e-03;//3e-04;//5e-05;//0.00005;

writeControl    adjustableRunTime;//runTime;//timeStep;//adjustableRunTime;

writeInterval   0.025;

purgeWrite      0;

writeFormat     ascii;

writePrecision  6;

writeCompression uncompressed;

timeFormat      general;

timePrecision   10;

runTimeModifiable on;

adjustTimeStep  yes;

maxCo           0.05;

maxDeltaT       1e-03;

// ************************************************************************* //
